202
Lattice="12.42 0.0 0.0 0.0 12.42 0.0 0.0 0.0 12.42" Properties=species:S:1:pos:R:3 pbc="T T T"
O       11.17480000       9.04417000       0.64341600
H       11.99860000       8.48091000       0.70822300
H       10.51310000       8.59880000       0.04030230
O       11.24350000       3.67019000       0.36625000
H       10.26540000       3.86427000       0.29155100
H       11.50890000       3.66106000       1.33037000
O        7.82385000      10.81740000       5.06340000
H        8.67645000      10.81260000       5.58594000
H        7.21566000      11.52440000       5.42429000
O        0.56442300      10.44180000      10.73290000
H        0.33381200       9.48047000      10.88350000
H       12.20480000      11.01500000      10.98510000
O        4.49564000      10.85640000       1.74439000
H        4.21699000      11.20130000       2.64072000
H        3.68345000      10.62100000       1.21061000
O        0.66480700      10.76270000       2.55589000
H        1.34279000      10.66270000       1.82763000
H        0.41785700       9.85974000       2.90759000
O        0.30945900       5.45077000      11.36020000
H       12.15040000       6.24676000      11.18390000
H       12.24730000       4.81468000      11.96260000
O        2.55526000       8.37175000       2.80240000
H        3.33097000       7.81482000       3.09922000
H        1.97013000       8.57380000       3.58777000
O        3.65752000       1.15585000       0.03327850
H        3.53261000       1.80299000       0.78534200
H        3.37572000       0.24301000       0.32876300
O        9.86928000       9.46872000       3.57232000
H        9.17606000       9.75251000       4.23482000
H       10.76690000       9.45824000       4.01295000
O        7.31386000       0.50711200       6.57778000
H        6.37720000       0.81821400       6.41688000
H        7.95627000       1.19064000       6.23124000
O        2.55223000      10.54700000       0.16854500
H        1.93134000      10.78700000      11.84230000
H        2.63922000       9.55223000       0.22286200
O        4.69126000       6.72194000       2.99884000
H        5.54691000       7.09722000       2.64241000
H        4.33723000       6.03658000       2.36248000
O        9.92555000      11.25960000       6.70764000
H       10.45050000      10.50660000       7.10421000
H       10.51370000      12.06290000       6.61394000
O        3.73183000       6.86213000      11.14270000
H        4.00575000       6.37362000      10.31420000
H        3.26060000       7.70741000      10.89080000
O        9.95022000      10.77460000       9.86443000
H       10.50800000      10.35870000       9.14613000
H       10.46530000      11.51170000      10.30170000
O        6.03318000       4.25438000      12.19280000
H        5.79378000       4.66453000      11.31270000
H        5.40717000       4.58833000       0.47747300
O        4.81770000       3.63178000       3.83558000
H        3.92443000       3.80358000       3.42019000
H        4.89025000       2.66541000       4.08229000
O       11.83390000       9.94419000       7.99409000
H        0.22365200      10.03180000       8.57433000
H       12.07170000       9.43988000       7.16395000
O        6.04698000      11.50430000      11.80640000
H        5.89940000      10.72750000      11.19410000
H        5.80827000      11.24180000       0.32131800
O        5.21887000       2.12183000       9.55702000
H        5.41652000       3.08318000       9.36537000
H        4.78539000       1.70497000       8.75807000
O        7.93269000       0.99025400       9.55615000
H        7.15753000       1.59498000       9.37331000
H        8.74461000       1.53957000       9.75371000
O        5.37340000       5.18448000       5.96068000
H        5.46692000       4.59486000       6.76293000
H        5.28984000       4.61958000       5.13976000
O        8.83333000       6.13684000       5.02406000
H        7.94882000       6.49768000       5.31975000
H        8.77018000       5.14438000       4.91905000
O        5.83100000       7.71613000       7.77992000
H        5.89162000       6.79661000       8.16827000
H        5.05677000       8.19992000       8.18800000
O        3.63659000       9.88829000       5.19357000
H        3.82961000      10.53490000       4.45555000
H        2.69224000      10.00550000       5.50091000
O        2.81587000       3.83354000       7.61859000
H        3.18163000       2.90285000       7.62307000
H        3.50332000       4.46359000       7.97976000
O        2.47197000       3.21661000      11.24270000
H        3.21785000       2.55146000      11.20760000
H        2.13108000       3.28599000      12.18020000
O        2.45220000       6.58508000       5.69527000
H        2.14633000       5.80150000       5.15449000
H        1.80535000       7.33958000       5.58424000
O        0.38958900      12.13270000       5.22914000
H        0.25989400      11.22700000       5.63274000
H        0.78356700      12.03700000       4.31502000
O        6.29482000       1.15125000       1.75534000
H        5.81969000       0.81107200       2.56684000
H        7.28265000       1.07542000       1.89118000
O        7.25780000       7.04863000      10.48090000
H        6.68673000       6.35680000      10.03910000
H        6.70087000       7.58526000      11.11490000
O        6.67218000       8.20717000       4.83114000
H        7.02443000       7.86546000       3.95984000
H        7.00183000       9.13924000       4.98141000
O        8.75724000       9.88375000      12.05040000
H        9.08666000      10.18710000      11.15630000
H        7.79891000       9.60782000      11.97650000
O        1.00131000       4.03385000       5.50174000
H        0.11658600       4.43895000       5.73231000
H        1.59184000       4.04144000       6.30872000
O        0.72814400       1.86424000       8.68986000
H       12.32010000       1.69161000       8.15651000
H        1.28626000       1.03492000       8.71669000
O        1.84753000       2.01517000       3.65060000
H        2.59295000       1.37699000       3.84311000
H        1.55186000       2.44885000       4.50177000
O       11.37380000       6.23515000       5.79642000
H       11.80100000       7.12792000       5.65331000
H       10.37920000       6.33149000       5.75763000
O        8.63468000       2.12875000      12.11230000
H        9.23546000       2.27981000      11.32730000
H        8.72591000       2.89081000       0.33333100
O        5.64725000      10.92580000       8.42374000
H        4.96700000      10.28140000       8.77299000
H        5.22693000      11.51080000       7.73013000
O       11.99580000       7.83187000      10.20710000
H        0.18688500       7.68096000       9.43003000
H       11.05010000       7.67430000       9.92291000
O        7.38230000       7.22681000       2.51998000
H        7.47517000       6.30142000       2.88745000
H        8.28965000       7.60594000       2.33836000
O       11.25680000       0.37929300      11.43250000
H       10.64350000       1.11711000      11.15060000
H       11.50160000       0.49860500      12.39470000
O       10.22670000       2.26874000       9.68049000
H        9.94115000       2.98121000       9.03951000
H       11.19100000       2.05141000       9.52934000
O       10.02270000       6.88116000       2.68327000
H        9.72376000       6.38222000       3.49673000
H       10.09180000       7.85567000       2.89666000
O       11.10520000       1.35300000       6.85699000
H       10.51270000       2.06981000       6.48946000
H       11.86050000       1.18721000       6.22287000
O       11.82740000       0.77596800       1.81591000
H        0.04290630       0.11395800       2.21321000
H       11.87630000       1.63364000       2.32778000
O        1.46705000       6.45515000       8.65622000
H        1.80788000       6.20728000       7.74936000
H        1.83436000       7.34769000       8.91786000
O       11.46340000       4.73260000       8.07731000
H       11.66190000       5.52622000       7.50220000
H       10.49400000       4.49931000       8.00035000
O        9.18154000       0.77119000       2.53330000
H       10.07760000       1.09115000       2.22560000
H        9.02901000       1.06430000       3.47713000
O       11.49790000       3.28939000       3.03692000
H       11.88100000       4.19489000       3.21952000
H       10.90520000       3.01905000       3.79557000
O        7.27719000      10.80320000       2.41456000
H        6.33324000      10.62080000       2.13948000
H        7.29524000      11.09490000       3.37091000
O        7.07980000       4.44448000       2.99939000
H        7.91896000       3.90488000       3.06757000
H        6.29149000       3.86084000       3.19412000
O        3.66577000       5.42917000       0.88471200
H        2.90623000       4.77966000       0.91997900
H        3.54116000       6.04586000       0.10743600
O        8.36946000       8.77089000       7.93055000
H        8.97909000       8.13631000       8.40558000
H        7.46131000       8.36078000       7.84649000
O        4.01213000       1.26952000       7.23484000
H        4.20734000       1.12745000       6.26442000
H        3.21140000       0.73049000       7.49614000
O        8.89641000       4.22523000       7.99581000
H        8.99429000       4.14585000       7.00378000
H        8.01758000       4.65107000       8.21102000
O        6.17566000       8.31265000       0.21334500
H        5.21722000       8.02777000       0.22828600
H        6.62104000       8.02879000       1.06250000
O        9.63251000       6.87318000       9.41816000
H        8.68651000       6.97089000       9.72723000
H        9.83211000       5.90678000       9.25617000
O        1.53692000       3.73006000       1.53144000
H        0.84223500       4.39382000       1.80864000
H        1.61650000       3.01931000       2.23037000
O        2.01200000      11.79640000       8.63486000
H        1.42768000      11.52120000       9.39831000
H        2.72489000      11.10900000       8.49614000
O        8.60793000       4.57311000       0.63865700
H        8.73579000       5.48819000       1.02112000
H        7.67166000       4.48142000       0.29955400
O        0.04128310       5.62916000       2.80448000
H       11.60490000       6.09260000       2.57694000
H        0.37417300       5.95886000       3.68793000
O        1.45436000       7.86742000       0.30098300
H        1.74221000       7.65697000       1.23525000
H        1.29274000       7.01589000      12.22220000
Na       1.12746000       4.25649000       9.54860000
Na       6.21761000       1.32931000      11.72290000
Na       8.02797000      11.37130000       8.15604000
Na       4.63827000       7.41392000       5.57682000
Na       9.70314000      10.79870000       1.49432000
Cl       9.08852000       3.01051000       5.24255000
Cl       4.56284000       0.52640500       4.34726000
Cl       0.26379600       8.92415000       5.06047000
Cl       5.65719000       4.88027000       9.09220000
Cl       3.41455000       9.02229000       9.09565000
