663
Lattice="16.869 0.0 0.0 0.0 14.609 0.0 0.0 0.0 32.478" Properties=species:S:1:pos:R:3 pbc="T T T"
H        4.11018000       7.67917000       8.65581000
H        4.26297000       6.08935000       8.61562000
H        9.44295000       5.56156000       8.37661000
H        0.44080100       5.18803000       9.68456000
H        0.04049600       6.48442000       8.86617000
H       16.77760000       8.77083000       7.92754000
H        1.05257000       9.02438000       9.06849000
H       13.90770000      13.59190000       9.17822000
H       13.81070000       0.51792700       9.65202000
H       11.77970000       5.34163000       8.82042000
H       11.20160000       6.72829000       8.83496000
H        2.37064000       1.73124000       8.01366000
H        4.80756000       0.70396300       8.54534000
H        8.58651000       2.22506000       9.33866000
H        8.97278000       3.48667000       8.49341000
H        1.83205000       5.22288000       7.99796000
H        2.64167000       3.87988000       8.50956000
H        7.83059000      11.89440000       9.05190000
H        7.55057000      10.73770000       7.88538000
H       10.26350000       8.42613000       9.26824000
H       11.30420000       8.89908000       8.13387000
H        1.17650000       6.10539000      14.57360000
H        1.69348000       4.59532000      14.77790000
H       16.12370000      10.00900000       9.08562000
H       15.89130000      11.36910000       8.28124000
H       14.44900000      13.64040000      13.30970000
H       15.00840000      12.29610000      13.86540000
H        5.74304000       1.06198000      14.61870000
H        7.05343000       1.52064000      13.92460000
H       10.84550000       2.11971000       8.99177000
H       11.89100000       1.23193000       8.28987000
H        2.76664000       9.60371000       8.05010000
H        3.68715000       9.76271000       9.46282000
H        5.98225000      10.79750000       9.55524000
H        5.19415000      10.52190000      11.03370000
H        2.11645000       1.30671000       9.57091000
H        0.62228200      14.06930000      10.86870000
H       16.21100000      12.26510000      10.56340000
H       16.26340000      12.90950000      11.99940000
H        7.84256000       5.94236000       8.21956000
H        6.20516000       7.03528000       8.49640000
H        8.00728000       7.98642000       9.13936000
H        8.30840000       9.50835000       9.51248000
H       15.91820000      14.36870000       8.52093000
H        2.08343000      14.22430000      10.82500000
H       13.96650000       5.69598000       7.91558000
H       13.96200000       4.51328000       9.08790000
H        2.41891000      12.26230000       8.29092000
H        1.07772000      13.18540000       8.58276000
H       16.59140000       3.21849000       8.04716000
H       16.72200000       1.13976000       8.14380000
H       11.08870000       7.58000000      12.42300000
H       12.47810000       7.63678000      11.79480000
H        6.58404000       1.26368000      10.03160000
H        7.74987000       0.29326700       9.87429000
H        9.88798000       4.92403000      12.02350000
H       10.83300000       5.57898000      10.89460000
H        9.57910000      13.49020000       9.71708000
H        8.79034000      13.46320000       8.29128000
H        4.00522000       6.68802000      10.86520000
H        5.07140000       6.20801000      11.92490000
H        5.21955000       2.60838000      13.38300000
H        4.30231000       2.64806000      12.14950000
H        2.44244000       6.91438000      12.16360000
H        1.30056000       7.91473000      12.14480000
H       13.57360000      11.54570000       8.94875000
H       12.67570000      12.46040000       8.05249000
H       12.49150000       3.76232000      16.65590000
H       12.37180000       3.63372000      15.11770000
H        4.43306000      11.65460000       8.76547000
H        4.69979000      13.63790000       8.23706000
H       14.23460000       4.50560000      13.37830000
H       14.98310000       5.80051000      13.45400000
H       16.06510000       4.81898000      11.52970000
H        0.57697700       5.48425000      11.72100000
H       14.71000000       8.44167000      11.65430000
H       16.13780000       9.21504000      11.96300000
H       15.01520000      10.10060000      13.54700000
H       15.45970000      10.34630000      15.09130000
H        4.87934000       8.63669000      12.52760000
H        6.22254000       9.37109000      12.50030000
H       13.30810000       2.63216000       9.52213000
H       14.87920000       2.82382000       9.08799000
H        1.23397000      10.40340000      12.79810000
H        1.35650000      10.62670000      11.25140000
H        4.26593000      13.47220000      12.24790000
H        4.49402000      12.98010000      10.70650000
H       11.81550000       5.89250000      14.45850000
H       11.96250000       5.13434000      13.03210000
H        6.26855000      11.43590000      15.47310000
H        7.18618000      10.52560000      16.54040000
H        3.05760000       5.87059000      15.73670000
H        3.36282000       6.46618000      17.12250000
H        8.95138000       2.87268000      12.32650000
H        8.99774000       3.53794000      10.87720000
H       15.66160000       1.41648000      15.50050000
H       14.41580000       2.40273000      15.57920000
H       13.19510000      13.21090000      17.70230000
H       13.19250000      14.64830000      16.93190000
H        3.95031000      10.88160000      14.66360000
H        5.17639000      10.59460000      13.80580000
H        4.02473000       2.12356000      10.01610000
H        4.47903000       0.94246700      10.98120000
H       14.19690000       2.40321000      11.73190000
H       15.36670000       2.08635000      12.72430000
H       11.72970000      10.29450000      11.84510000
H       11.89230000      11.49530000      10.89800000
H       13.22720000       0.70964800      12.73540000
H       12.26970000      14.50810000      13.60390000
H        8.71949000      12.07470000      13.67650000
H        8.41224000      12.05080000      15.21780000
H        5.80740000       4.55543000      12.90050000
H        7.31699000       4.75872000      12.23750000
H       15.73060000       7.71145000      15.03040000
H       15.52280000       7.82058000      13.36680000
H        1.93217000      10.42020000      15.24780000
H        1.56632000      11.80750000      15.08610000
H       10.88830000       0.16269800      20.51600000
H        9.71523000       0.94353000      20.14670000
H        7.84261000       8.36318000      13.06930000
H        8.14834000       8.52954000      11.46660000
H       11.27410000       0.57566300      10.51320000
H       11.49060000      14.22890000      11.73540000
H       11.22350000       0.58619900      15.89430000
H       12.24630000       1.68541000      15.80830000
H       13.13390000       7.60984000      16.16890000
H       14.09180000       6.48599000      16.43360000
H        7.93657000       1.32441000      11.81660000
H        9.36138000       0.74524200      12.08200000
H        4.78964000      12.93490000      14.32390000
H        3.63675000      13.95120000      14.51400000
H        0.56509900       1.56180000      11.91590000
H        0.39131600       3.15513000      11.82390000
H        8.68650000      14.50100000      16.66670000
H        9.29294000      13.99980000      15.28880000
H       15.70500000       5.26117000      17.94800000
H       15.01350000       5.41512000      19.39910000
H        7.15436000       6.91838000      15.16310000
H        7.20311000       6.32399000      13.65260000
H        6.00607000       3.35443000      15.74360000
H        6.75714000       3.51770000      16.98210000
H        7.18367000       9.20199000      18.73040000
H        6.80014000       8.32327000      17.44000000
H        0.85700100       7.07950000      20.62270000
H        0.04824000       5.85830000      20.07680000
H       16.59180000      14.27870000      18.92830000
H       15.19480000      14.07480000      18.08770000
H        2.37853000       1.50786000      14.98220000
H        1.42260000       0.31145200      15.23160000
H        3.92823000       3.92648000      19.39710000
H        3.68328000       4.06663000      21.04750000
H       15.15230000       2.30051000      17.61020000
H       15.38580000       3.29980000      18.86220000
H        6.52792000       5.84978000      16.73330000
H        5.32343000       6.66975000      16.28220000
H       13.92320000       6.48717000      11.75430000
H       14.00960000       6.56116000      10.16420000
H        7.07195000      13.38760000      18.51440000
H        6.67814000      12.90800000      17.02590000
H        2.79070000      13.07560000      16.91150000
H        1.36123000      12.75960000      17.45040000
H       12.12320000      11.50780000      17.34900000
H       12.40150000      11.49210000      18.97400000
H       11.62050000      10.38880000      15.52940000
H       10.30670000      11.40640000      15.44860000
H        9.38453000       6.90127000      14.66450000
H       10.22920000       7.79308000      15.65270000
H        8.40093000      10.53400000      12.29560000
H        9.43113000      11.50670000      11.57000000
H        3.80713000       4.18458000      17.23070000
H        2.84679000       2.90872000      17.85500000
H        8.42226000       2.29306000      18.78490000
H        7.44442000       1.87455000      19.99360000
H       15.88060000       9.04990000      21.20920000
H       15.07890000       9.40317000      19.80110000
H        0.70896500       5.09338000      24.16740000
H        0.73360900       6.63216000      23.90880000
H       10.36740000       9.69148000      16.71590000
H        8.97649000       9.01007000      17.37510000
H        0.19613800      11.79230000      19.22530000
H        1.63707000      11.81860000      19.83160000
H       16.02420000      13.96860000      14.48550000
H       16.29450000      14.34730000      16.10670000
H        8.47278000       2.08795000      16.59140000
H        8.87587000       3.72175000      16.72440000
H        2.90405000       3.26971000      13.69540000
H        1.32482000       2.92759000      13.68490000
H       15.47930000       4.13054000      16.09400000
H       16.28140000       5.45509000      15.72950000
H        3.84074000       0.42240400      18.05740000
H        5.09391000      14.04560000      18.13730000
H        0.55978800       1.01984000      20.51180000
H       16.51160000       1.64688000      19.23370000
H        8.64451000      13.44530000      20.41930000
H        8.15766000      11.96820000      20.24700000
H        5.53463000       4.87270000      19.73290000
H        7.05699000       5.71926000      19.50750000
H       10.40550000       5.04257000      17.39980000
H        9.83346000       5.99440000      16.25270000
H       12.65370000       0.00121000      19.54700000
H       12.38250000      13.92470000      20.81510000
H       12.29330000       8.54740000      14.23700000
H       13.39540000       9.43023000      14.63760000
H       10.35510000       8.79842000      18.75560000
H        9.79280000       7.90886000      19.92620000
H       10.31810000       3.74313000      21.72680000
H        9.46640000       3.09749000      20.40480000
H        4.23649000       1.44816000      23.23880000
H        3.22846000       1.98421000      24.48580000
H        3.71315000       7.40702000      19.10030000
H        2.19596000       6.83237000      18.98440000
H       11.91390000       8.27071000      20.48780000
H       13.35950000       8.73928000      21.02250000
H       13.09820000       6.42457000      20.74280000
H       13.57760000       4.79298000      20.85380000
H       12.45710000       5.70634000      17.78840000
H       12.24800000       4.86368000      18.98930000
H       13.57700000       2.56653000      20.67540000
H       14.93370000       2.82276000      21.42370000
H       13.89810000      10.13830000      17.92050000
H       13.74980000       8.56376000      17.85370000
H        0.55301200       2.13307000      23.63420000
H       16.15670000       3.03739000      23.89320000
H       15.18040000      13.30270000      24.00080000
H       14.39120000      12.79300000      22.78700000
H        5.50620000       6.93979000      19.72440000
H        5.52223000       8.37565000      20.48830000
H        5.06988000       0.81841200      19.76790000
H        5.20349000       2.35138000      20.18410000
H       11.11280000      11.66860000      20.75400000
H       12.66070000      11.92250000      21.14560000
H        2.15043000       4.83904000      22.76440000
H        3.08851000       3.53439000      22.84020000
H       14.63710000      10.94930000      21.98250000
H       13.52970000      11.02250000      23.14830000
H        5.67773000      11.61430000      22.74720000
H        4.39980000      11.66400000      22.00120000
H        8.14419000       2.76704000      23.08950000
H        8.37984000       1.61640000      24.13710000
H        5.75382000       0.72550900      21.77040000
H        6.58123000       1.07081000      23.03180000
H        9.43311000       5.33916000      20.09770000
H        9.19211000       6.00232000      18.62450000
H        8.42410000       6.28661000      22.93460000
H        9.62239000       7.37231000      22.80560000
H       10.88790000       8.08429000      24.20980000
H       11.67840000       7.92002000      22.85380000
H        4.28550000       5.55476000      22.86560000
H        5.16057000       6.29557000      21.89640000
H       13.85630000       3.51731000      23.51390000
H       13.84980000       2.05951000      24.02510000
H       11.01600000       3.44007000      24.09520000
H       11.20560000       4.86919000      23.56100000
H       16.57060000       0.30881600      22.75620000
H        1.18957000       0.20714200      22.87400000
H        3.40590000      13.23190000      19.83870000
H        3.14704000      13.41010000      21.46780000
H        1.85468000      10.43430000      17.79490000
H        2.38003000       8.93643000      17.60250000
H        3.18612000      14.49860000      23.68460000
H        3.65776000      13.03360000      23.91590000
H       15.45660000       6.01418000      23.16870000
H       16.11750000       8.00929000      24.32060000
H       16.80140000       9.86394000      24.04240000
H       11.86390000      10.36910000      24.16980000
H        3.63067000      10.06960000      23.38760000
H        2.32093000       9.79026000      24.30730000
H        6.51205000      13.67200000      22.77780000
H        7.21474000      12.76180000      21.67230000
H       10.01780000      10.06190000      20.95220000
H       10.02130000      10.37750000      22.38710000
H       10.27820000       0.10623800      22.48100000
H        9.92698000      13.76050000      23.73510000
H        7.97362000      12.81490000      23.80700000
H        9.33204000      11.77880000      24.29350000
H        5.93470000      10.79020000      20.60440000
H        7.04929000      10.14530000      21.32710000
H        1.59634000       8.89759000      22.16270000
H        1.32093000       9.36247000      20.70400000
H       15.59910000       9.23474000      16.94230000
H        0.22282200       9.18942000      16.46210000
H       14.06350000       7.32773000      23.97300000
H       13.59430000       9.03333000      24.37680000
H        6.63151000       5.48017000      23.46030000
H        7.78956000       4.86022000      24.39360000
H        6.71319000       9.14730000      23.73730000
H        7.84360000       8.47050000      22.89550000
H        5.02864000       7.38324000      24.06030000
H        4.27150000       8.83191000      24.47770000
H        0.39854400      11.39630000      24.00880000
H       13.30590000      14.45030000      24.03250000
H        2.21510000       1.05483000      16.92520000
H        1.61712000       1.38274000      18.49780000
H       14.75790000       5.40801000      24.27790000
H        8.94838000      10.12660000      24.23610000
H       11.78820000       0.32005500      23.81280000
O        4.70056000       6.90954000       9.00670000
O        2.42536000       2.05783000       8.99949000
O        8.54743000       5.14560000       8.26017000
O        0.41456300       5.56160000       8.80218000
O        0.16750400       8.60528000       8.90273000
O       14.42460000      14.39080000       9.37451000
O       10.92960000       5.76022000       9.10187000
O        5.35362000      14.51010000       8.28550000
O        9.32335000       2.85674000       9.18287000
O        2.68450000       4.70391000       8.00761000
O        7.52858000      10.88590000       8.87164000
O       11.22250000       8.37733000       8.97064000
O        1.26347000       5.35143000      15.21400000
O       15.61650000      10.85520000       9.08906000
O       15.30490000      13.11670000      13.41420000
O        6.30937000       1.84541000      14.41760000
O       11.76330000       1.69370000       9.15877000
O        3.03796000       9.18235000       8.94752000
O        5.11827000      10.70200000      10.07010000
O        1.30142000       0.10792500      10.58890000
O       16.80130000      12.47780000      11.30410000
O        7.11319000       7.08478000       8.12502000
O        8.57170000       8.55709000       9.74933000
O       -0.03734800       0.07454400       8.11328000
O       13.81030000       5.47443000       8.89313000
O        1.41551000      12.34590000       8.12055000
O       15.99870000       2.52470000       7.99577000
O       11.93060000       8.04494000      12.47410000
O        7.51076000       1.16201000      10.20520000
O       10.67190000       5.51250000      11.86040000
O        8.65889000      13.37080000       9.33924000
O        4.23459000       6.76196000      11.77260000
O        4.45403000       3.12041000      13.01570000
O        1.46762000       6.96138000      12.30590000
O       12.96070000      12.33770000       9.00324000
O       12.85030000       3.26733000      15.86100000
O        3.89459000      12.32370000       8.24259000
O       14.65610000       5.14126000      12.80220000
O        0.11404700       4.66623000      11.31690000
O       15.18660000       9.11098000      12.21020000
O       14.78930000      10.52880000      14.41160000
O        5.19942000       9.56025000      12.54190000
O       14.16630000       3.11460000       9.74229000
O        1.05611000       9.98036000      11.95700000
O        4.23639000      13.77750000      11.31010000
O       12.33990000       5.17931000      14.00400000
O        7.05717000      11.44470000      16.06240000
O        3.82402000       6.02490000      16.30850000
O        8.65756000       3.68628000      11.79140000
O       15.36790000       2.24633000      15.81060000
O       13.47170000      14.12930000      17.76490000
O        4.86468000      11.20280000      14.54490000
O        4.73352000       1.88606000      10.62140000
O       14.36620000       2.03898000      12.65880000
O       11.36580000      11.14090000      11.63970000
O       12.84310000      14.41180000      12.81790000
O        9.15322000      12.21720000      14.58340000
O        6.45929000       5.21275000      12.56170000
O       15.67630000       7.20473000      14.14380000
O        1.77591000      11.04230000      14.47520000
O        9.90345000       0.10239300      20.55960000
O        7.90232000       8.99455000      12.30810000
O       10.82570000      14.57500000      11.16950000
O       12.17140000       0.70123800      15.76830000
O       13.30520000       6.95544000      16.83540000
O        8.62911000       1.27846000      12.54310000
O        4.52134000      13.85000000      14.13340000
O        0.27449400       2.33876000      12.46370000
O        9.25748000       0.16034900      15.92230000
O       15.77930000       5.02555000      18.90010000
O        7.68693000       6.90756000      14.29990000
O        5.87881000       3.69654000      16.60970000
O        7.32546000       9.10055000      17.76230000
O        0.96703900       6.17136000      20.25320000
O       16.09660000      13.59650000      18.34430000
O        2.38045000       0.53768200      15.36610000
O        4.44795000       3.86305000      20.28110000
O       15.20880000       2.32273000      18.64260000
O        6.33246000       6.81338000      16.42250000
O       13.86980000       7.06739000      10.96230000
O        6.58925000      13.60690000      17.66250000
O        2.04834000      12.45050000      16.74120000
O       12.82670000      11.46910000      18.04170000
O       11.05020000      11.00820000      16.04090000
O       10.29000000       7.11422000      14.94420000
O        8.57853000      11.52760000      12.02360000
O        3.21577000       3.86029000      17.91010000
O        8.37657000       1.85679000      19.63300000
O       15.08270000       9.40519000      20.80480000
O        0.51163200       5.79895000      23.48420000
O        9.89078000       8.79367000      16.97800000
O        0.97760800      11.27670000      19.33110000
O       16.56390000      14.50410000      15.16040000
O        8.41925000       2.88208000      17.10920000
O        2.14415000       3.12806000      14.29000000
O       15.43240000       5.13989000      16.15280000
O        4.29028000      14.26710000      18.60950000
O        0.49458000       1.06223000      19.52450000
O        7.83360000      12.89170000      20.19820000
O        6.11974000       5.59854000      19.22940000
O        9.56963000       5.29566000      16.93280000
O       12.54160000       0.22964300      20.47290000
O       12.57870000       9.03405000      15.03680000
O       10.45080000       8.61217000      19.71320000
O       10.01480000       3.83084000      20.82680000
O        3.34690000       1.82863000      23.49350000
O        2.94108000       7.22880000      18.45460000
O       12.59160000       8.18039000      21.24220000
O       13.42530000       5.60409000      20.30470000
O       12.01750000       4.82572000      17.96810000
O       13.93360000       3.03773000      21.42280000
O       14.41240000       9.25984000      18.10240000
O        0.22691300       2.98233000      24.11430000
O       14.75900000      13.69440000      23.20400000
O        4.97056000       7.61579000      20.23800000
O        5.65258000       1.46136000      20.30030000
O       11.92880000      12.14050000      20.42770000
O        3.00801000       4.46448000      22.53820000
O       13.81890000      11.43400000      22.26180000
O        4.75029000      11.16700000      22.74000000
O        8.08359000       1.81764000      23.25320000
O        5.78537000       0.54080200      22.73870000
O        8.97619000       6.06491000      19.59960000
O        8.70177000       7.13888000      22.49630000
O       11.16130000       7.45313000      23.56600000
O        5.05386000       6.11217000      22.83130000
O       14.31250000       2.95585000      24.16680000
O       11.29030000       3.95384000      23.27270000
O        0.50123400       0.65543900      22.33790000
O        3.18215000      12.81420000      20.70200000
O        1.88403000       9.69701000      17.17780000
O        2.94402000      13.52730000      23.48640000
O        0.19672400       8.24875000      24.46960000
O       12.80730000      10.22090000      24.42910000
O        2.92157000       9.42955000      23.62940000
O        6.84341000      12.74460000      22.62430000
O        9.81270000      10.80480000      21.52560000
O       10.58790000      14.36330000      23.32210000
O        8.90650000      12.78840000      24.26370000
O        6.76890000      10.28890000      20.38580000
O        1.00462000       8.65521000      21.37690000
O       16.18550000       9.13212000      16.11140000
O       14.26910000       8.26544000      24.41170000
O        7.52332000       5.03994000      23.49840000
O        7.46404000       9.33285000      23.12610000
O        5.19779000       8.33403000      24.41860000
O       16.57520000      10.71930000      23.62650000
O        2.38455000       1.48058000      17.84570000
O       14.51610000       5.89207000      23.43170000
O        9.78275000      10.53000000      24.56960000
O       12.70680000       0.59838700      24.31680000
Pt       1.48045000       0.74523900      26.74850000
Pt       4.25200000       0.80457600      26.54860000
Pt       6.96982000       0.75333900      26.57420000
Pt       9.85051000       0.65086900      26.76220000
Pt      12.66930000       0.72787500      26.53130000
Pt      15.43310000       0.78765800      26.60300000
Pt       2.87982000       3.16197000      26.65360000
Pt       5.67649000       3.26601000      26.62780000
Pt       8.46168000       3.24465000      26.54250000
Pt      11.32770000       3.06419000      26.70790000
Pt      14.20480000       3.12095000      26.60430000
Pt       0.12796800       3.12835000      26.44660000
Pt       4.21201000       5.58857000      26.70410000
Pt       7.00022000       5.67064000      26.58160000
Pt       9.90444000       5.60434000      26.69570000
Pt      12.64160000       5.42180000      26.52180000
Pt      15.56850000       5.61054000      26.56310000
Pt       1.34799000       5.72009000      26.49670000
Pt       5.86001000       8.03813000      26.52380000
Pt       8.59356000       7.85449000      26.63950000
Pt      11.37910000       7.93940000      26.61760000
Pt      14.18890000       8.05996000      26.57300000
Pt       0.16263600       8.10803000      26.53950000
Pt       2.86844000       7.99615000      26.63730000
Pt       7.07176000      10.64400000      26.61620000
Pt       9.94935000      10.39100000      26.67410000
Pt      12.79610000      10.46210000      26.47190000
Pt      15.58900000      10.50890000      26.51250000
Pt       1.49441000      10.50840000      26.55170000
Pt       4.34812000      10.49490000      26.83960000
Pt       8.47732000      12.93360000      26.58340000
Pt      11.34210000      12.81780000      26.69240000
Pt      14.12030000      12.92110000      26.63920000
Pt      16.88660000      12.88940000      26.51350000
Pt       2.74040000      12.94530000      26.66150000
Pt       5.63574000      12.95250000      26.49730000
Pt      16.84010000       1.60405000      29.03620000
Pt       2.92417000       1.61259000      29.00280000
Pt       5.61432000       1.63591000      28.84990000
Pt       8.45935000       1.53291000      28.85800000
Pt      11.21930000       1.60618000      28.97960000
Pt      13.94850000       1.61359000      28.90140000
Pt       1.37565000       4.00686000      28.88460000
Pt       4.20397000       4.11088000      28.93420000
Pt       6.96672000       4.08962000      29.05950000
Pt       9.78039000       3.99116000      28.95000000
Pt      12.67890000       4.02649000      29.02470000
Pt      15.42840000       3.89483000      28.93150000
Pt       2.79358000       6.40767000      28.96740000
Pt       5.69538000       6.56872000      29.00850000
Pt       8.49168000       6.43528000      29.06410000
Pt      11.33560000       6.35956000      28.94190000
Pt      14.12760000       6.41504000      28.88570000
Pt      16.80310000       6.38506000      28.96860000
Pt       4.23630000       8.78276000      28.97600000
Pt       6.99295000       8.90906000      28.94360000
Pt       9.93037000       8.78488000      28.99510000
Pt      12.81200000       8.87682000      28.97100000
Pt      15.53430000       8.90896000      28.85480000
Pt       1.36712000       8.86348000      28.89110000
Pt       5.62166000      11.41560000      28.93980000
Pt       8.43731000      11.26700000      29.00040000
Pt      11.28260000      11.20370000      29.00540000
Pt      14.03320000      11.31650000      28.86180000
Pt      16.78040000      11.46080000      28.88130000
Pt       2.80867000      11.35700000      28.98260000
Pt       6.98812000      13.83510000      28.91590000
Pt       9.92521000      13.66550000      29.02670000
Pt      12.60010000      13.83500000      28.97400000
Pt      15.38210000      13.83600000      28.91140000
Pt       1.37288000      13.76230000      28.98870000
Pt       4.11672000      13.80010000      28.85480000
Pt      16.73870000       0.02805000      31.23400000
Pt       2.69329000       0.08205100      31.30580000
Pt       5.45795000       0.03025000      31.19300000
Pt       8.37094000       0.06621800      31.26740000
Pt      11.21060000      14.58860000      31.33720000
Pt      13.97820000       0.02237100      31.25810000
Pt       1.33325000       2.51577000      31.30530000
Pt       4.15788000       2.59347000      31.29430000
Pt       6.89634000       2.42466000      31.28900000
Pt       9.70167000       2.54918000      31.33050000
Pt      12.59100000       2.37685000      31.26730000
Pt      15.49790000       2.48762000      31.34680000
Pt       2.69595000       4.93620000      31.37580000
Pt       5.61829000       5.03466000      31.32740000
Pt       8.36893000       4.89458000      31.26780000
Pt      11.21430000       4.82378000      31.40240000
Pt      13.98030000       4.86584000      31.27080000
Pt      16.73280000       4.88906000      31.26440000
Pt       4.15299000       7.26488000      31.29960000
Pt       6.99028000       7.38669000      31.31880000
Pt       9.85687000       7.29663000      31.40770000
Pt      12.58930000       7.29547000      31.26320000
Pt      15.38640000       7.35061000      31.31160000
Pt       1.22042000       7.24750000      31.30250000
Pt       5.50625000       9.82075000      31.22240000
Pt       8.35098000       9.68726000      31.35920000
Pt      11.23150000       9.74073000      31.22480000
Pt      14.01850000       9.81080000      31.31990000
Pt      16.75100000       9.60021000      31.34360000
Pt       2.70797000       9.79935000      31.32350000
Pt       7.01349000      12.16600000      31.35480000
Pt       9.83036000      12.11820000      31.43960000
Pt      12.73650000      12.16760000      31.37280000
Pt      15.40760000      12.23150000      31.28040000
Pt       1.26008000      12.12830000      31.28590000
Pt       4.05342000      12.24640000      31.19200000
Pt       1.38004000       0.81557000       1.24134000
Pt       4.14739000       0.87559100       1.06121000
Pt       6.91798000       0.82446300       1.16904000
Pt       9.57071000       0.84267100       1.21320000
Pt      12.51880000       0.78108200       1.15696000
Pt      15.31290000       0.91438800       1.16043000
Pt       2.77910000       3.21947000       1.12260000
Pt       5.58373000       3.27712000       1.14035000
Pt       8.43356000       3.24895000       1.20214000
Pt      11.24900000       3.18703000       1.22449000
Pt      14.01430000       3.23921000       1.19038000
Pt      16.79230000       3.23668000       1.28833000
Pt       4.34942000       5.65316000       1.18321000
Pt       7.14216000       5.62178000       1.06400000
Pt       9.89861000       5.67995000       1.23618000
Pt      12.67690000       5.64876000       1.11421000
Pt      15.41000000       5.64478000       1.20601000
Pt       1.39860000       5.78128000       1.22921000
Pt       5.55555000       8.11824000       1.13344000
Pt       8.37884000       8.13023000       1.17967000
Pt      11.22880000       8.20490000       1.19613000
Pt      13.99690000       8.15317000       1.04687000
Pt      16.81280000       8.13942000       1.16711000
Pt       2.81819000       8.12541000       1.13289000
Pt       6.87306000      10.53700000       1.14505000
Pt       9.71389000      10.59810000       1.14871000
Pt      12.65550000      10.55760000       1.23055000
Pt      15.48630000      10.69340000       1.13337000
Pt       1.34458000      10.64640000       1.22533000
Pt       4.14184000      10.56720000       1.13852000
Pt       8.38361000      13.04160000       1.09852000
Pt      11.17290000      13.03410000       1.21473000
Pt      13.99590000      13.03820000       1.19079000
Pt      16.75260000      13.13220000       1.05939000
Pt       2.71383000      13.06640000       1.07207000
Pt       5.51793000      13.06240000       1.11878000
Pt      16.77270000       1.64730000       3.65289000
Pt       2.75284000       1.57037000       3.49819000
Pt       5.53715000       1.53751000       3.55405000
Pt       8.31462000       1.63940000       3.66358000
Pt      11.09170000       1.68681000       3.47359000
Pt      13.91810000       1.64995000       3.45741000
Pt       1.44085000       4.05498000       3.44812000
Pt       4.18931000       3.97322000       3.50731000
Pt       7.03484000       3.98218000       3.50832000
Pt       9.86592000       4.10045000       3.59274000
Pt      12.65720000       4.04434000       3.49276000
Pt      15.48640000       4.11619000       3.52470000
Pt       2.79567000       6.40877000       3.51523000
Pt       5.65893000       6.38857000       3.49978000
Pt       8.44793000       6.49934000       3.46377000
Pt      11.20360000       6.47770000       3.44219000
Pt      13.94090000       6.46129000       3.49955000
Pt      16.81750000       6.57981000       3.40828000
Pt       4.23819000       8.96553000       3.48991000
Pt       6.97660000       8.91760000       3.50421000
Pt       9.83966000       8.95891000       3.48644000
Pt      12.56670000       8.86884000       3.50143000
Pt      15.38400000       8.90057000       3.47970000
Pt       1.41724000       8.89300000       3.45092000
Pt       5.51413000      11.33100000       3.50938000
Pt       8.36951000      11.40450000       3.41988000
Pt      11.16680000      11.33090000       3.55195000
Pt      14.02610000      11.41170000       3.54407000
Pt      16.86110000      11.35950000       3.42904000
Pt       2.76080000      11.38090000       3.61341000
Pt       6.94415000      13.70340000       3.47883000
Pt       9.70875000      13.82370000       3.39570000
Pt      12.50820000      13.84310000       3.52674000
Pt      15.46200000      13.77380000       3.47103000
Pt       1.35980000      13.82400000       3.50991000
Pt       4.19323000      13.75410000       3.44816000
Pt      16.84250000       0.06486900       5.88923000
Pt       2.72991000      14.53070000       5.80268000
Pt       5.70495000      14.55690000       6.17822000
Pt       8.53063000      14.39830000       5.83316000
Pt      11.27420000      14.53010000       5.88711000
Pt      14.06060000      14.50150000       5.80182000
Pt       1.50244000       2.47379000       5.85880000
Pt       4.22407000       2.41516000       5.97076000
Pt       6.99385000       2.37603000       5.86543000
Pt       9.82591000       2.37449000       5.89715000
Pt      12.61120000       2.35128000       5.90180000
Pt      15.46660000       2.55486000       5.95110000
Pt       2.96159000       4.81192000       5.95827000
Pt       5.59327000       4.72755000       5.74602000
Pt       8.51953000       4.78342000       6.09695000
Pt      11.34250000       4.80074000       5.78869000
Pt      14.06530000       4.96021000       5.85661000
Pt       0.10450300       4.92069000       5.61691000
Pt       4.18999000       7.22623000       5.86300000
Pt       7.09049000       7.15503000       5.87499000
Pt       9.80817000       7.30975000       5.76184000
Pt      12.54950000       7.20243000       5.81460000
Pt      15.49420000       7.37449000       5.82075000
Pt       1.32775000       7.30550000       5.97585000
Pt       5.68058000       9.65234000       5.79361000
Pt       8.47970000       9.67916000       5.81796000
Pt      11.29450000       9.62253000       5.94735000
Pt      13.96850000       9.80692000       5.86003000
Pt      16.82510000       9.77626000       5.86683000
Pt       2.94393000       9.66374000       5.91696000
Pt       7.10756000      12.06720000       5.85490000
Pt       9.80270000      11.97790000       5.89711000
Pt      12.46980000      12.12820000       5.86730000
Pt      15.49130000      12.14560000       5.84738000
Pt       1.51448000      12.06920000       5.95352000
Pt       4.32513000      12.11220000       6.05710000
